test/V25p_MAX_RED.raw
@!IC, SBASE,REV,XFRRAT,NXFRAT,BASFRQ
0,   100.00, 34,     0,     1, 50.00     / PSS(R)E-34.9    WED, OCT 23 2024  22:00
GUIA DE REFERENCIA TRANSENER 2024 - 2031
CASO: V32P - PICO 2031/32 - SADI: 37975 MW
GENERAL, THRSHZ=0.0001, PQBRAK=0.7, BLOWUP=5.0
GAUSS, ITMX=100, ACCP=1.6, ACCQ=1.6, ACCM=1.0, TOL=0.0001
NEWTON, ITMXN=40, ACCN=0.5, TOLN=1.0, VCTOLQ=0.1, VCTOLV=0.00001, DVLIM=0.99, NDVFCT=0.99
ADJUST, ADJTHR=0.005, ACCTAP=1.0, TAPLIM=0.05, SWVBND=100.0, MXTPSS=99, MXSWIM=10
TYSL, ITMXTY=20, ACCTY=1.0, TOLTY=0.00001
SOLVER, FNSL, ACTAPS=0, AREAIN=0, PHSHFT=0, DCTAPS=1, SWSHNT=2, FLATST=0, VARLIM=0, NONDIV=0
RATING, 1, "RATE1 ", "RATE LIMITANTE (TRS)            "
RATING, 2, "RATE2 ", "NO USADO (TRS)                  "
RATING, 3, "RATE3 ", "LIMITE TERMICO COND. (TRS)      "
RATING, 4, "RATE4 ", "TI LADO XX LEAT 5XXYY1 (TRS)    "
RATING, 5, "RATE5 ", "TI LADO YY LEAT 5XXYY1 (TRS)    "
RATING, 6, "RATE6 ", "OP LADO XX LEAT 5XXYY1 (TRS)    "
RATING, 7, "RATE7 ", "OP LADO YY LEAT 5XXYY1 (TRS)    "
RATING, 8, "RATE8 ", "NO USADO (TRS)                  "
RATING, 9, "RATE9 ", "NO USADO (TRS)                  "
RATING,10, "RATE10", "NO USADO (TRS)                  "
RATING,11, "RATE11", "NO USADO (TRS)                  "
RATING,12, "RATE12", "NO USADO (TRS)                  "
0 / END OF SYSTEM-WIDE DATA, BEGIN BUS DATA
@!   I,'NAME        ', BASKV, IDE,AREA,ZONE,OWNER, VM,        VA,    NVHI,   NVLO,   EVHI,   EVLO
  2000,'B.BLANCA    ', 500.0000,3,   5,  24,  10,1.01600,  18.2000,1.03000,0.97000,1.05000,0.95000
  2008,'OLAVARRI    ', 500.0000,3,   5,  22,  10,1.00900,   7.4000,1.03000,0.97000,1.05000,0.95000
  2010,'OLA.BB1     ', 500.0000,1,   5,  22,  10,1.02734,  -2.5421,1.05000,0.95000,1.05000,0.95000
  2011,'OLA.BB2     ', 500.0000,1,   5,  22,  10,1.01613,   0.4341,1.05000,0.95000,1.05000,0.95000
  2012,'OLA.AB1     ', 500.0000,1,   5,  22,  10,1.01649,  18.4677,1.05000,0.95000,1.05000,0.95000
  2013,'OLA.AB2     ', 500.0000,1,   5,  22,  10,1.00909,  17.6645,1.05000,0.95000,1.05000,0.95000
  2049,'VIVO.BB1    ', 500.0000,1,   5,  22,  10,1.01800,  16.1000,1.03000,0.97000,1.05000,0.95000
  2050,'VIVORATA    ', 500.0000,3,   5,  22,  10,1.01800,  16.1000,1.03000,0.97000,1.05000,0.95000
  2051,'VIV.PLO1    ', 500.0000,4,   5,   2,  10,0.99510,  30.4804,1.05000,0.95000,1.05000,0.95000
  3000,'EZEIZA      ', 500.0000,3,   4,   1,  10,1.00000,  -8.8000,1.03000,0.97000,1.05000,0.95000
  3002,'ABASTO      ', 500.0000,3,   4,   1,  10,1.01000,  -4.9000,1.03000,0.97000,1.05000,0.95000
  3003,'            ', 500.0000,1,   4,   1,  10,1.00601,  -8.2318,1.03000,0.97000,1.10000,0.90000
  3004,'RODRIGUEZ   ', 500.0000,3,   4,   1,  99,1.00100, -11.7000,1.03000,0.97000,1.05000,0.97000
0 / END OF BUS DATA, BEGIN LOAD DATA
@!   I,'ID',STAT,AREA,ZONE,      PL,        QL,        IP,        IQ,        YP,        YQ, OWNER,SCALE,INTRPT,  DGENP,     DGENQ, DGENF
0 / END OF LOAD DATA, BEGIN FIXED SHUNT DATA
@!   I,'ID',STATUS,  GL,        BL
0 / END OF FIXED SHUNT DATA, BEGIN GENERATOR DATA
@!   I,'ID',      PG,        QG,        QT,        QB,     VS,    IREG,     MBASE,     ZR,         ZX,         RT,         XT,     GTAP,STAT, RMPCT,      PT,        PB,    O1,    F1,  O2,    F2,  O3,    F3,  O4,    F4,WMOD, WPF,NREG
  2000,'E ',  2729.608,    93.810,  9999.000, -9999.000,1.01600,  2000,   100.000, 0.00000E+0, 1.00000E+0, 0.00000E+0, 0.00000E+0,1.00000,1,  100.0,  9999.000, -9999.000,   1,1.0000
  2008,'E ',   113.549,  -181.810,  9999.000, -9999.000,1.00900,  2008,   100.000, 0.00000E+0, 1.00000E+0, 0.00000E+0, 0.00000E+0,1.00000,1,  100.0,  9999.000, -9999.000,   1,1.0000
  2050,'E ',   -96.226,   -68.729,  9999.000, -9999.000,1.01800,  2050,   100.000, 0.00000E+0, 1.00000E+0, 0.00000E+0, 0.00000E+0,1.00000,1,  100.0,  9999.000, -9999.000,   1,1.0000
  3000,'E ',  -169.090,  -167.089,  9999.000, -9999.000,1.00000,  3000,   100.000, 0.00000E+0, 1.00000E+0, 0.00000E+0, 0.00000E+0,1.00000,1,  100.0,  9999.000, -9999.000,   1,1.0000
  3002,'E ',  -623.605,   436.987,  9999.000, -9999.000,1.01000,  3002,   100.000, 0.00000E+0, 1.00000E+0, 0.00000E+0, 0.00000E+0,1.00000,1,  100.0,  9999.000, -9999.000,   1,1.0000
  3004,'E ', -1772.916,   102.518,  9999.000, -9999.000,1.00100,  3004,   100.000, 0.00000E+0, 1.00000E+0, 0.00000E+0, 0.00000E+0,1.00000,1,  100.0,  9999.000, -9999.000,   1,1.0000
0 / END OF GENERATOR DATA, BEGIN BRANCH DATA
@!   I,     J,'CKT',     R,          X,         B,                    'N A M E'                 ,   RATE1,   RATE2,   RATE3,   RATE4,   RATE5,   RATE6,   RATE7,   RATE8,   RATE9,  RATE10,  RATE11,  RATE12,    GI,       BI,       GJ,       BJ,STAT,MET,  LEN,  O1,  F1,    O2,  F2,    O3,  F3,    O4,  F4
  2000,  2010,'1 ', 2.32000E-03, 2.81000E-02,   2.67978,'5BBOL1                                  ', 1878.00,    0.00, 1878.00, 2598.00, 2598.00, 2598.00, 2598.00,    0.00,    0.00,    0.00,    0.00,    0.00,  0.00000, -1.50000,  0.00000,  0.00000,1,1, 255.00,  10,1.0000
  2000,  2011,'2 ', 2.00000E-03, 2.41900E-02,   3.05121,'5BBOL2                                  ', 2598.00,    0.00, 2629.00, 2598.00, 2598.00,    0.00,    0.00,    0.00,    0.00,    0.00,    0.00,    0.00,  0.00000, -1.50000,  0.00000,  0.00000,1,1, 254.80,  10,1.0000
  2000,  2049,'1 ', 3.24000E-03, 3.88800E-02,   4.81669,'5BB-VIV1                                ', 1732.00,    0.00, 1980.00, 1732.00, 1732.00,    0.00,    0.00,    0.00,    0.00,    0.00,    0.00,    0.00,  0.00000, -1.50000,  0.00000, -1.60000,1,2, 408.40,   1,1.0000
  2008,  2010,'A ', 0.00000E+00,-1.39440E-02,   0.00000,'K1OL                                    ', 1464.00, 1464.00, 1464.00,    0.00,    0.00,    0.00,    0.00,    0.00,    0.00,    0.00,    0.00,    0.00,  0.00000,  0.00000,  0.00000,  0.00000,1,2,   0.00,  10,1.0000
  2008,  2011,'B ', 0.00000E+00,-9.74000E-03,   0.00000,'K3OL                                    ', 1429.00, 1429.00, 1429.00,    0.00,    0.00,    0.00,    0.00,    0.00,    0.00,    0.00,    0.00,    0.00,  0.00000,  0.00000,  0.00000,  0.00000,1,2,   0.00,  10,1.0000
  2008,  2012,'A ', 0.00000E+00,-1.52680E-02,   0.00000,'K2OL                                    ', 1470.00, 1470.00, 1470.00,    0.00,    0.00,    0.00,    0.00,    0.00,    0.00,    0.00,    0.00,    0.00,  0.00000,  0.00000,  0.00000,  0.00000,1,1,   0.00,  10,1.0000
  2008,  2013,'B ', 0.00000E+00,-1.31080E-02,   0.00000,'K4OL                                    ', 1470.00, 1470.00, 1470.00,    0.00,    0.00,    0.00,    0.00,    0.00,    0.00,    0.00,    0.00,    0.00,  0.00000,  0.00000,  0.00000,  0.00000,1,1,   0.00,  10,1.0000
  2012,  3002,'1 ', 2.63000E-03, 3.19400E-02,   3.06400,'5ABOL1                                  ', 1979.00,    0.00, 1979.00, 2598.00,    0.00, 2598.00, 2598.00,    0.00,    0.00,    0.00,    0.00,    0.00,  0.00000, -1.50000,  0.00000,  0.00000,1,1, 291.00,  10,1.0000
  2013,  3002,'2 ', 2.34000E-03, 2.85200E-02,   3.62437,'5ABOL2                                  ', 2598.00,    0.00, 2629.00, 2598.00, 2598.00,    0.00,    0.00,    0.00,    0.00,    0.00,    0.00,    0.00,  0.00000, -1.50000,  0.00000,  0.00000,1,1, 301.90,  10,1.0000
  2049,  2050,'1 ', 0.00000E+00,-2.12500E-02,   0.00000,'                                        ', 2629.30, 2629.30, 2629.30,    0.00,    0.00,    0.00,    0.00,    0.00,    0.00,    0.00,    0.00,    0.00,  0.00000,  0.00000,  0.00000,  0.00000,0,2,   0.00,   1,1.0000
  2050,  2051,'1 ', 0.00000E+00,-2.08100E-02,   0.00000,'K2VIV                                   ', 1263.00,    0.00, 1263.00,    0.00,    0.00,    0.00,    0.00,    0.00,    0.00,    0.00,    0.00,    0.00,  0.00000,  0.00000,  0.00000,  0.00000,0,1,   0.00,  10,1.0000
  2051,  3004,'1 ', 3.13000E-03, 3.78300E-02,   4.28893,'5PLOVIV1                                ', 1264.00,    0.00, 1264.00,    0.00,    0.00,    0.00,    0.00,    0.00,    0.00,    0.00,    0.00,    0.00,  0.00000, -1.60000,  0.00000, -1.20000,0,2, 360.00,  10,1.0000
  3000,  3002,'B ', 5.70000E-04, 6.54000E-03,   0.59809,'5ABEZ2                                  ', 1732.00,    0.00, 1948.00, 1732.00, 1732.00,    0.00,    0.00,    0.00,    0.00,    0.00,    0.00,    0.00,  0.00000,  0.00000,  0.00000,  0.00000,1,2,  58.00,  10,1.0000
  3000,  3004,'A ', 5.60000E-04, 5.68000E-03,   0.59278,'5EZRD1                                  ', 1732.00,    0.00, 1858.00, 1732.00, 1732.00,    0.00,    0.00,    0.00,    0.00,    0.00,    0.00,    0.00,  0.00000,  0.00000,  0.00000,  0.00000,1,2,  54.00,  10,1.0000
  3002,  3003,'1 ', 5.73000E-04, 6.54200E-03,   0.59810,'                                        ', 1732.00, 1732.00, 1948.00,    0.00,    0.00,    0.00,    0.00,    0.00,    0.00,    0.00,    0.00,    0.00,  0.00000,  0.00000,  0.00000,  0.00000,1,1,  58.00,  10,1.0000
  3003,  3004,'1 ', 6.30000E-04, 6.79000E-03,   0.61747,'                                        ', 1732.00, 1732.00,    0.00,    0.00,    0.00,    0.00,    0.00,    0.00,    0.00,    0.00,    0.00,    0.00,  0.00000,  0.00000,  0.00000,  0.00000,1,1,  60.00,   1,1.0000
0 / END OF BRANCH DATA, BEGIN SYSTEM SWITCHING DEVICE DATA
@!   I,     J,'CKT',          X,   RATE1,   RATE2,   RATE3,   RATE4,   RATE5,   RATE6,   RATE7,   RATE8,   RATE9,  RATE10,  RATE11,  RATE12, STAT,NSTAT,  MET,STYPE,'NAME'
  2008,  2010,'@1', 1.00000E-4,    0.00,    0.00,    0.00,    0.00,    0.00,    0.00,    0.00,    0.00,    0.00,    0.00,    0.00,    0.00,    0,    1,    1,    2,'                                        '
  2008,  2011,'@1', 1.00000E-4,    0.00,    0.00,    0.00,    0.00,    0.00,    0.00,    0.00,    0.00,    0.00,    0.00,    0.00,    0.00,    0,    1,    1,    2,'                                        '
  2008,  2012,'@1', 1.00000E-4,    0.00,    0.00,    0.00,    0.00,    0.00,    0.00,    0.00,    0.00,    0.00,    0.00,    0.00,    0.00,    0,    1,    1,    2,'                                        '
  2008,  2013,'@1', 1.00000E-4,    0.00,    0.00,    0.00,    0.00,    0.00,    0.00,    0.00,    0.00,    0.00,    0.00,    0.00,    0.00,    0,    1,    1,    2,'                                        '
  2049,  2050,'@F', 1.00000E-4, 1732.00, 1732.00, 1732.00,    0.00,    0.00,    0.00,    0.00,    0.00,    0.00,    0.00,    0.00,    0.00,    1,    1,    2,    2,'                                        '
  2050,  2051,'@1', 1.00000E-4,    0.00,    0.00,    0.00,    0.00,    0.00,    0.00,    0.00,    0.00,    0.00,    0.00,    0.00,    0.00,    0,    1,    1,    2,'                                        '
0 / END OF SYSTEM SWITCHING DEVICE DATA, BEGIN TRANSFORMER DATA
@!   I,     J,     K,'CKT',CW,CZ,CM,     MAG1,        MAG2,NMETR,               'N A M E',               STAT,O1,  F1,    O2,  F2,    O3,  F3,    O4,  F4,     'VECGRP', ZCOD
@!   R1-2,       X1-2,   SBASE1-2,     R2-3,       X2-3,   SBASE2-3,     R3-1,       X3-1,   SBASE3-1, VMSTAR,   ANSTAR
@!WINDV1,  NOMV1,    ANG1,  RATE1-1,  RATE1-2,  RATE1-3,  RATE1-4,  RATE1-5,  RATE1-6,  RATE1-7,  RATE1-8,  RATE1-9, RATE1-10, RATE1-11, RATE1-12,COD1,CONT1,   RMA1,    RMI1,    VMA1,    VMI1, NTP1,TAB1,  CR1,     CX1,   CNXA1,NOD1
@!WINDV2,  NOMV2,    ANG2,  RATE2-1,  RATE2-2,  RATE2-3,  RATE2-4,  RATE2-5,  RATE2-6,  RATE2-7,  RATE2-8,  RATE2-9, RATE2-10, RATE2-11, RATE2-12,COD2,CONT2,   RMA2,    RMI2,    VMA2,    VMI2, NTP2,TAB2,  CR2,     CX2,   CNXA2,NOD2
@!WINDV3,  NOMV3,    ANG3,  RATE3-1,  RATE3-2,  RATE3-3,  RATE3-4,  RATE3-5,  RATE3-6,  RATE3-7,  RATE3-8,  RATE3-9, RATE3-10, RATE3-11, RATE3-12,COD3,CONT3,   RMA3,    RMI3,    VMA3,    VMI3, NTP3,TAB3,  CR3,     CX3,   CNXA3,NOD3
0 / END OF TRANSFORMER DATA, BEGIN AREA DATA
@! I,   ISW,     PDES,      PTOL,    'ARNAME'
   4,     0,     0.000,    10.000,'G.B.A.      '
   5,     0,     0.000,    10.000,'BS.AS.      '
0 / END OF AREA DATA, BEGIN TWO-TERMINAL DC DATA
@!  'NAME',   MDC,     RDC,      SETVL,     VSCHD,     VCMOD,     RCOMP,    DELTI,METER    DCVMIN,CCCITMX, CCCACC
@! IPR,NBR,ANMXR,ANMNR,   RCR,    XCR,  EBASR,  TRR,    TAPR,   TMXR,   TMNR,   STPR,    ICR,   IFR,   ITR,'IDR', XCAPR,NDR
@! IPI,NBI,ANMXI,ANMNI,   RCI,    XCI,  EBASI,  TRI,    TAPI,   TMXI,   TMNI,   STPI,    ICI,   IFI,   ITI,'IDI', XCAPI,NDI
0 / END OF TWO-TERMINAL DC DATA, BEGIN VSC DC LINE DATA
@!  'NAME',   MDC,     RDC,   O1,  F1,    O2,  F2,    O3,  F3,    O4,  F4
@!IBUS,TYPE,MODE,     DCSET,   ACSET,     ALOSS,     BLOSS,   MINLOSS,     SMAX,      IMAX,   PWF,        MAXQ,      MINQ, VSREG,  RMPCT,NREG
0 / END OF VSC DC LINE DATA, BEGIN IMPEDANCE CORRECTION DATA
@!I,   T1,    Re(F1),  Im(F1),    T2,    Re(F2),  Im(F2),    T3,    Re(F3),  Im(F3),    T4,    Re(F4),  Im(F4),    T5,    Re(F5),  Im(F5),    T6,    Re(F6),  Im(F6)
@!     T7,    Re(F7),  Im(F7),    T8,    Re(F8),  Im(F8),    T9,    Re(F9),  Im(F9),    T10,  Re(F10), Im(F10),    T11,  Re(F11), Im(F11),    T12,  Re(F12), Im(F12)
@!      ...
0 / END OF IMPEDANCE CORRECTION DATA, BEGIN MULTI-TERMINAL DC DATA
@!  'NAME',    NCONV,NDCBS,NDCLN,  MDC, VCONV,     VCMOD, VCONVN
@!  IB, N,ANGMX,ANGMN,    RC,      XC,    EBAS,   TR,    TAP,    TPMX,   TPMN,   TSTP,     SETVL,   DCPF,    MARG,CNVCOD
@!IDC, IB,AREA,ZONE,   'DCNAME',  IDC2,   RGRND,OWNER
@!IDC,JDC,'DCCKT',MET,   RDC,        LDC
0 / END OF MULTI-TERMINAL DC DATA, BEGIN MULTI-SECTION LINE DATA
@!   I,     J,'ID',MET,DUM1,  DUM2,  DUM3,  DUM4,  DUM5,  DUM6,  DUM7,  DUM8,  DUM9
0 / END OF MULTI-SECTION LINE DATA, BEGIN ZONE DATA
@! I,   'ZONAME'
   1,'TRANSGBA    '
   2,'TRANSCOM    '
  22,'BA.ATLAN    '
  24,'BA.SUR      '
0 / END OF ZONE DATA, BEGIN INTER-AREA TRANSFER DATA
@!ARFROM,ARTO,'TRID', PTRAN
0 / END OF INTER-AREA TRANSFER DATA, BEGIN OWNER DATA
@! I,   'OWNAME'
   1,'DEMANDA     '
  10,'TRANSPORTE  '
  99,'FUTURO      '
0 / END OF OWNER DATA, BEGIN FACTS DEVICE DATA
@!  'NAME',         I,     J,MODE,   PDES,      QDES,  VSET,      SHMX,      TRMX,   VTMN,   VTMX,   VSMX,      IMX,     LINX,   RMPCT,OWNER,    SET1,      SET2,VSREF, FCREG,   'MNAME'    ,NREG
0 / END OF FACTS DEVICE DATA, BEGIN SWITCHED SHUNT DATA
@!  I,MODSW,ADJM,ST, VSWHI,  VSWLO, SWREG,  RMPCT,   'RMIDNT',      BINIT,N1,     B1, N2,     B2, N3,     B3, N4,     B4, N5,     B5, N6,     B6, N7,     B7, N8,     B8, NREG
  2000,  0,  0,  1,1.03000,0.97000,  2000,  100.0,'            ',    0.00, 1, -150.00, 1, -150.00
  2008,  0,  0,  1,1.03000,0.97000,  2008,  100.0,'            ',    0.00, 1, -150.00, 1, -150.00
  2050,  1,  0,  1,1.03000,0.97000,  2050,  100.0,'            ',    0.00, 2,  -80.00
0 / END OF SWITCHED SHUNT DATA, BEGIN GNE DATA
@!  'NAME',        'MODEL',     NTERM,BUS1...BUSNTERM,NREAL,NINTG,NCHAR
@!ST,OWNER,NMETR
@! REAL1...REAL(MIN(10,NREAL))
@! INTG1...INTG(MIN(10,NINTG))
@! CHAR1...CHAR(MIN(10,NCHAR))
0 / END OF GNE DATA, BEGIN INDUCTION MACHINE DATA
@!   I,'ID',ST,SC,DC,AREA,ZONE,OWNER,TC,BC,  MBASE, RATEKV,PC,  PSET,      H,       A,       B,       D,       E,     RA,        XA,        XM,        R1,        X1,        R2,        X2,        X3,       E1,    SE1,   E2,    SE2,   IA1,   IA2, XAMULT
0 / END OF INDUCTION MACHINE DATA, BEGIN SUBSTATION DATA
0 / END OF SUBSTATION DATA
Q
